opendss_networks/LV32_100bus/Groundings.dss
new reactor.tx_busgrounding_B3041 phases=1 bus1=B3041.4 bus2=B3041.0 r=0.3 x=0.0
new reactor.loadbusgrounding_B387 phases=1 bus1=B387.4 bus2=B387.0 r=10.0 x=0.0
new reactor.loadbusgrounding_B2023 phases=1 bus1=B2023.4 bus2=B2023.0 r=10.0 x=0.0
new reactor.loadbusgrounding_B1686 phases=1 bus1=B1686.4 bus2=B1686.0 r=10.0 x=0.0
new reactor.loadbusgrounding_B1554 phases=1 bus1=B1554.4 bus2=B1554.0 r=10.0 x=0.0
new reactor.loadbusgrounding_B219 phases=1 bus1=B219.4 bus2=B219.0 r=10.0 x=0.0
new reactor.loadbusgrounding_B2702 phases=1 bus1=B2702.4 bus2=B2702.0 r=10.0 x=0.0
new reactor.loadbusgrounding_B2409 phases=1 bus1=B2409.4 bus2=B2409.0 r=10.0 x=0.0
new reactor.loadbusgrounding_B1728 phases=1 bus1=B1728.4 bus2=B1728.0 r=10.0 x=0.0
new reactor.loadbusgrounding_B456 phases=1 bus1=B456.4 bus2=B456.0 r=10.0 x=0.0
new reactor.loadbusgrounding_B1071 phases=1 bus1=B1071.4 bus2=B1071.0 r=10.0 x=0.0
new reactor.loadbusgrounding_B2538 phases=1 bus1=B2538.4 bus2=B2538.0 r=10.0 x=0.0
new reactor.loadbusgrounding_B1687 phases=1 bus1=B1687.4 bus2=B1687.0 r=10.0 x=0.0
new reactor.loadbusgrounding_B1933 phases=1 bus1=B1933.4 bus2=B1933.0 r=10.0 x=0.0
new reactor.loadbusgrounding_B2781 phases=1 bus1=B2781.4 bus2=B2781.0 r=10.0 x=0.0
new reactor.loadbusgrounding_B280 phases=1 bus1=B280.4 bus2=B280.0 r=10.0 x=0.0
new reactor.loadbusgrounding_B2978 phases=1 bus1=B2978.4 bus2=B2978.0 r=10.0 x=0.0
new reactor.loadbusgrounding_B591 phases=1 bus1=B591.4 bus2=B591.0 r=10.0 x=0.0
new reactor.loadbusgrounding_B2586 phases=1 bus1=B2586.4 bus2=B2586.0 r=10.0 x=0.0
new reactor.loadbusgrounding_B1197 phases=1 bus1=B1197.4 bus2=B1197.0 r=10.0 x=0.0
new reactor.loadbusgrounding_B2164 phases=1 bus1=B2164.4 bus2=B2164.0 r=10.0 x=0.0
new reactor.loadbusgrounding_B2045 phases=1 bus1=B2045.4 bus2=B2045.0 r=10.0 x=0.0
new reactor.loadbusgrounding_B676 phases=1 bus1=B676.4 bus2=B676.0 r=10.0 x=0.0
